Version 4.1
SHEET 1 2364 928
WIRE -288 288 -288 256
WIRE 304 304 176 304
WIRE 1616 304 1616 288
WIRE 1616 304 1584 304
WIRE 1632 304 1616 304
WIRE 128 352 -112 352
WIRE 240 352 208 352
WIRE 1632 352 496 352
WIRE 240 368 240 352
WIRE 304 368 304 304
WIRE 384 368 304 368
WIRE 496 368 496 352
WIRE -288 384 -288 368
WIRE -288 384 -416 384
WIRE 1632 400 1568 400
WIRE -416 416 -416 384
WIRE -288 416 -288 384
WIRE 1568 416 1568 400
WIRE 1568 416 1536 416
WIRE 128 448 0 448
WIRE 240 448 208 448
WIRE 1568 448 1568 416
WIRE 1632 448 1568 448
WIRE -112 464 -112 432
WIRE 1584 480 1072 480
WIRE 496 496 496 448
WIRE 960 496 688 496
WIRE 1072 496 1072 480
WIRE 1584 496 1584 480
WIRE 1632 496 1584 496
WIRE 0 512 0 448
WIRE 160 512 160 496
WIRE 384 512 384 448
WIRE 384 512 160 512
WIRE 688 512 688 496
WIRE -288 528 -288 496
WIRE 384 528 384 512
WIRE 1632 544 1568 544
WIRE 1328 560 1184 560
WIRE 1456 560 1392 560
WIRE 1456 592 1456 560
WIRE 1632 592 1456 592
WIRE 688 608 688 592
WIRE 960 608 960 576
WIRE 960 608 688 608
WIRE 1072 624 1072 576
WIRE 384 640 384 608
WIRE 496 640 496 576
WIRE 1632 640 1408 640
WIRE 960 656 960 608
WIRE 1392 672 1376 672
WIRE 1408 672 1408 640
WIRE 1408 672 1392 672
WIRE 1392 752 1392 672
WIRE 960 768 960 736
WIRE 1072 768 1072 704
WIRE 1184 832 1184 560
WIRE 1312 832 1184 832
WIRE 1392 832 1392 752
FLAG 1072 768 0
FLAG 960 768 0
FLAG 496 640 0
FLAG 384 640 0
FLAG 1584 304 v-
FLAG 1568 544 v+
FLAG 1536 416 0
FLAG 0 512 0
FLAG -416 416 0
FLAG -288 256 v+
FLAG -288 528 v-
FLAG -112 464 0
SYMBOL res 1408 656 R90
WINDOW 0 0 56 VBottom 2
WINDOW 3 32 56 VTop 2
SYMATTR InstName R1
SYMATTR Value 10K
SYMBOL res 1408 736 R90
WINDOW 0 0 56 VBottom 2
WINDOW 3 32 56 VTop 2
SYMATTR InstName R2
SYMATTR Value 20K
SYMBOL res 1408 816 R90
WINDOW 0 0 56 VBottom 2
WINDOW 3 32 56 VTop 2
SYMATTR InstName R3
SYMATTR Value 42K
SYMBOL cap 1392 544 R90
WINDOW 0 0 32 VBottom 2
WINDOW 3 32 32 VTop 2
SYMATTR InstName C1
SYMATTR Value 1000µF
SYMBOL ind 1088 480 M0
WINDOW 3 28 129 Left 2
SYMATTR Value 1H
SYMATTR InstName L1
SYMATTR SpiceLine Rser=10
SYMATTR Type ind
SYMBOL ind 944 592 M180
WINDOW 0 36 80 Left 2
WINDOW 3 -37 114 Left 2
SYMATTR InstName L2
SYMATTR Value 4H
SYMATTR SpiceLine Rser=10
SYMATTR Type ind
SYMBOL res 704 496 M0
SYMATTR InstName R4
SYMATTR Value 10k
SYMBOL res 976 640 M0
SYMATTR InstName R5
SYMATTR Value 100m
SYMBOL res 1088 608 M0
SYMATTR InstName R6
SYMATTR Value 100m
SYMBOL ind 512 352 M0
WINDOW 3 28 129 Left 2
SYMATTR Value 1H
SYMATTR InstName L3
SYMATTR SpiceLine Rser=10
SYMATTR Type ind
SYMBOL ind 368 464 M180
WINDOW 0 36 80 Left 2
WINDOW 3 -37 114 Left 2
SYMATTR InstName L4
SYMATTR Value 1H
SYMATTR SpiceLine Rser=10
SYMATTR Type ind
SYMBOL res 400 512 M0
SYMATTR InstName R7
SYMATTR Value 100m
SYMBOL res 512 480 M0
SYMATTR InstName R8
SYMATTR Value 100m
SYMBOL pot 112 368 R270
WINDOW 3 -192 -65 VRight 2
SYMATTR Value Rtot=1K wiper=1
SYMATTR InstName U1
SYMBOL pot 224 432 R90
WINDOW 3 157 -33 VRight 2
SYMATTR Value Rtot=1K wiper=1
SYMATTR InstName U2
SYMBOL res 224 352 R0
SYMATTR InstName R9
SYMATTR Value 22
SYMBOL PreAmp110A 1664 416 R0
SYMATTR InstName P1
SYMBOL voltage -288 272 R0
WINDOW 123 0 0 Left 0
WINDOW 39 0 0 Left 0
SYMATTR InstName V1
SYMATTR Value 24
SYMBOL voltage -288 400 R0
WINDOW 123 0 0 Left 0
WINDOW 39 0 0 Left 0
SYMATTR InstName V2
SYMATTR Value 24
SYMBOL voltage -112 336 R0
WINDOW 3 24 152 Left 2
WINDOW 123 24 124 Left 2
WINDOW 39 0 0 Left 0
SYMATTR InstName V3
SYMATTR Value SINE(0 0.025 1000)
SYMATTR Value2 AC 1.2
TEXT 1616 264 Left 2 ;card edge
TEXT 696 472 Left 2 ;out transformer
TEXT 504 328 Left 2 ;Input Transformer "input impedance is close to 600 ohms so 600:600"
TEXT 152 400 Left 2 ;pad
TEXT 24 400 Left 2 ;input
TEXT 1424 752 Left 2 ;gain select switch
TEXT 160 272 Left 2 ;40db input pad
TEXT 1256 656 Left 2 ;40db
TEXT 1256 728 Left 2 ;45db
TEXT 1256 808 Left 2 ;50db
TEXT 712 560 Left 2 ;load resistor
TEXT 1704 304 Left 2 ;-24V
TEXT 1712 344 Left 2 ;Input
TEXT 1704 632 Left 2 ;Feedback
TEXT 1704 592 Left 2 ;Output
TEXT 1696 544 Left 2 ;+24V
TEXT 1704 496 Left 2 ;Output
TEXT 1704 424 Left 2 ;Common
TEXT 48 616 Left 2 !.include pot.sub
TEXT 1848 288 Left 2 !.include PreAmp110A.sub\n.include 110A.lib
TEXT 48 696 Left 2 !K1 L1 L2 0.99\nK2 L3 L4 0.99
TEXT 40 832 Left 2 !.tran 0 50m 0 10u\n.four 1k V(N008)
